v 20130925 2
C 40000 40000 0 0 0 Noqsi-title-B.sym
{
T 50000 40500 5 10 1 1 0 0 1
date=20141023
T 53900 40500 5 10 1 1 0 0 1
rev=6.0
T 55400 40200 5 10 1 1 0 0 1
auth=jpd
T 50200 40800 5 8 1 1 0 0 1
fname=Booster Simimulation Fixture
T 53200 41200 5 14 1 1 0 4 1
title=Booster simulation fixture
}
N 47300 45900 48600 45900 4
{
T 48700 45800 5 10 1 1 0 0 1
netname=out
}
N 48000 45100 48000 45900 4
N 47000 48500 49800 48500 4
{
T 48100 48700 5 10 1 1 0 0 1
netname=vp
}
C 49500 47300 1 0 0 vdc-1.sym
{
T 50200 47950 5 10 1 1 0 0 1
refdes=Vp
T 50200 47750 5 10 1 1 0 0 1
value=DC 2V
}
C 49700 47000 1 0 0 gnd-1.sym
C 40300 44800 1 0 0 vpulse-1.sym
{
T 41000 45450 5 10 1 1 0 0 1
refdes=Vin
T 41000 45250 5 10 1 1 0 0 1
value=pulse 0 3.3V 0 10n 10n 5u 10u
}
C 40500 44500 1 0 0 gnd-1.sym
T 40400 50100 8 10 1 0 0 0 4
spice-prolog=
.model swvl sw ron=20 vt=-0.8V
.model swvh sw ron=20 vt=2.4V
.title Booster Test
C 43900 44400 1 180 1 spice-vc-switch-1.sym
{
T 44800 43200 5 12 1 1 180 6 1
refdes=Sl
T 44600 44250 5 8 1 1 180 6 1
model-name=swvl
}
C 43900 48900 1 180 1 spice-vc-switch-1.sym
{
T 44800 47700 5 12 1 1 180 6 1
refdes=Sh
T 44600 48750 5 8 1 1 180 6 1
model-name=swvh
}
C 45600 42900 1 180 1 resistor.sym
{
T 45800 42600 5 10 1 1 180 6 1
refdes=R5
T 45800 43200 5 10 1 1 180 6 1
value=3.74k
}
N 45600 42800 45600 43400 4
C 46100 48600 1 180 1 resistor.sym
{
T 46300 48300 5 10 1 1 180 6 1
refdes=R6
T 46300 48900 5 10 1 1 180 6 1
value=3.74k
}
N 46100 48500 45600 48500 4
N 40600 46000 44100 46000 4
{
T 42600 46100 5 10 1 1 0 0 1
netname=in
}
N 44100 44000 44100 47900 4
N 43600 43400 44100 43400 4
C 45700 45300 1 0 0 Booster.sym
{
T 46800 46100 5 10 1 1 0 0 1
refdes=Xut
}
C 43500 43100 1 0 0 gnd-1.sym
N 45600 44000 45700 44000 4
N 45700 44000 45700 45600 4
N 45600 47900 45700 47900 4
N 45700 47900 45700 46200 4
C 44000 48200 1 0 0 gnd-1.sym
N 46500 46500 47600 46500 4
N 47600 46500 47600 48500 4
C 46400 41000 1 0 0 gnd-1.sym
C 46200 41300 1 0 0 vdc-1.sym
{
T 46900 41950 5 10 1 1 0 0 1
refdes=Vn
T 46900 41750 5 10 1 1 0 0 1
value=-8V
}
T 50400 40200 9 10 1 0 0 0 1
1
T 52200 40200 9 10 1 0 0 0 1
1
C 48900 44900 1 0 0 capacitor-1.sym
{
T 49100 45800 5 10 0 0 0 0 1
symversion=0.1
T 49100 45400 5 10 1 1 0 0 1
refdes=Ccd
T 49100 44700 5 10 1 1 0 0 1
value=65nF
}
C 49700 44800 1 0 0 gnd-1.sym
C 48000 45200 1 180 1 resistor.sym
{
T 48200 44900 5 10 1 1 180 6 1
refdes=Rccd
T 48200 45500 5 10 1 1 180 6 1
value=5
}
N 46500 42500 46500 45300 4
{
T 46600 45200 5 10 1 1 0 0 1
netname=vn
}
