* gnetlist -m censor-fix.scm -g spice-noqsi -o DG403.mod DG403.sch
* SPICE file generated by spice-noqsi version 20130710
* Send requests or bug reports to jpd@noqsi.com
.subckt dg403 d1 d3 s3 s4 d4 d2 s2 in2 vdd vcc vee vss in1 s1
.model swvl sw ron=20 vt=-0.8V
.model swvh sw ron=20 vt=2.4V
.model pad d

Sl3 D3 S3 Vee in1 swvl 
Sh3 D1 S1 in1 Vee swvh 
D1 D3 Vdd pad    
D2 Vss D3 pad    
D3 S3 Vdd pad    
D4 Vss S3 pad    
D5 D1 Vdd pad    
D6 Vss D1 pad    
D7 S1 Vdd pad    
D8 Vss S1 pad    
Sl2 D4 S4 Vee in2 swvl 
Sh2 D2 S2 in2 Vee swvh 
D9 D4 Vdd pad    
D10 Vss D4 pad    
D11 S4 Vdd pad    
D12 Vss S4 pad    
D13 D2 Vdd pad    
D14 Vss D2 pad    
D15 S2 Vdd pad    
D16 Vss S2 pad    
D17 in1 Vdd pad    
D18 Vss in1 pad    
D19 in2 Vdd pad    
D20 Vss in2 pad    
D21 Vee Vcc pad    
.ENDS
