*************** Power Bipolar Electrical Parameters ********************
** Product: MMBT2222A
** Package: SOT-23
** NPN General Purpose Amplifier
**---------------------------------------------------------------------
.MODEL MMBT2222A NPN
+ IS     = 1.68844E-13     BF     = 192.1           NF     = 1                  
+ BR     = 1.98            NR     = 1               ISE    = 1.250E-14              
+ NE     = 1.5             ISC    = 2.51826E-09     NC     = 1.5                
+ VAF    = 74.03           VAR    = 100             IKF    = 0.869453             
+ IKR    = 0.37378         RB     = 1.15            RBM    = 0.0025            
+ IRB    = 2.51189E-6      RE     = 0.0284          RC     = 0.18               
+ CJE    = 2.179424E-11    VJE    = 0.6464066       MJE    = 0.3296434          
+ CJC    = 9.241838E-12    FC     = 0.5             VJC    = 0.5                
+ MJC    = 0.2804945       TF     = 2.4512E-10      ITF    = 0.6
+ VTF    = 1.7             XTF    = 3               TR     = 4.142E-8
+ XTB    = 1.32            EG     = 0.81            XTI    = 3
**---------------------------------------------------------------------
** Creation: Feb.-05-2009  
** Fairchild Semiconductor

