********* Discrete Diode Electrical Parameters *********
** Package: DO-35 / LL-34
** 1N/FDLL914/A/B 916/A/B 4148/ 4448 Small Signal Diode
**------------------------------------------------------
.MODEL FDLL914B D
+ IS=5.0e-09
+ RS=0.8622
+ N=2.0
+ ISR=9.808e-14
+ NR=2.0
+ CJO=8.68e-13
+ M=0.02504
+ VJ=0.90906
+ FC=0.5
+ TT=6.012e-9
+ BV=100 
+ IBV=1e-07
+ EG=0.92
**------------------------------------------------------
** Creation: May-31-2007   Rev: 1.0
** Fairchild Semiconductor
