v 20130925 2
C 40000 40000 0 0 0 Noqsi-title-B.sym
{
T 50000 40500 5 10 1 1 0 0 1
date=$Date: 2009-01-11 18:02:03 $
T 53900 40500 5 10 1 1 0 0 1
rev=$Revision: 1.1 $
T 55400 40200 5 10 1 1 0 0 1
auth=$Author: jpd $
T 50200 40800 5 8 1 1 0 0 1
fname=$Source: /cvs/MIT/TESS/AE/minisys/components/symbols/Noqsi-title-B.sym,v $
T 53200 41200 5 14 1 1 0 4 1
title=TITLE
}
T 40300 49400 8 10 1 0 0 0 5
spice-prolog=.subckt dg403 d1 d3 s3 s4 d4 d2 s2 in2 vdd vcc vee vss in1 s1
.model swvl sw ron=20 vt=-0.8V
.model swvh sw ron=20 vt=2.4V
.model pad d cjo=10p vj=10

C 42100 47400 1 0 0 spice-vc-switch-1.sym
{
T 43000 48600 5 12 1 1 0 0 1
refdes=Sl3
T 42800 47550 5 8 1 1 0 0 1
model-name=swvl
}
C 42100 42800 1 0 0 spice-vc-switch-1.sym
{
T 43000 44000 5 12 1 1 0 0 1
refdes=Sh3
T 42800 42950 5 8 1 1 0 0 1
model-name=swvh
}
N 42300 43800 42300 47800 4
{
T 42000 46100 5 10 1 1 0 0 1
netname=in1
}
N 41800 48400 42300 48400 4
N 43800 48400 45400 48400 4
{
T 44000 48500 5 10 1 1 0 0 1
netname=D3
}
N 43800 47800 44300 47800 4
{
T 44000 47900 5 10 1 1 0 0 1
netname=S3
}
N 43800 43800 45400 43800 4
{
T 44000 43900 5 10 1 1 0 0 1
netname=D1
}
N 43800 43200 44300 43200 4
{
T 44000 43300 5 10 1 1 0 0 1
netname=S1
}
C 45600 48400 1 90 0 diode-1.sym
{
T 45100 48900 5 10 1 1 180 0 1
refdes=D1
T 45500 48800 5 10 0 0 0 0 1
model-name=pad
}
C 45600 47500 1 90 0 diode-1.sym
{
T 45100 48000 5 10 1 1 180 0 1
refdes=D2
T 45500 47900 5 10 0 0 0 0 1
model-name=pad
}
C 45200 49300 1 0 0 vdd-1.sym
C 45600 47500 1 180 0 vss-1.sym
C 42000 48400 1 180 0 vee-1.sym
C 42500 43200 1 180 0 vee-1.sym
C 46500 46700 1 90 0 diode-1.sym
{
T 46000 47200 5 10 1 1 180 0 1
refdes=D3
T 46400 47100 5 10 0 0 0 0 1
model-name=pad
}
C 46500 45800 1 90 0 diode-1.sym
{
T 46000 46300 5 10 1 1 180 0 1
refdes=D4
T 46400 46200 5 10 0 0 0 0 1
model-name=pad
}
C 46100 47600 1 0 0 vdd-1.sym
C 46500 45800 1 180 0 vss-1.sym
C 45600 43800 1 90 0 diode-1.sym
{
T 45100 44300 5 10 1 1 180 0 1
refdes=D5
T 45500 44200 5 10 0 0 0 0 1
model-name=pad
}
C 45600 42900 1 90 0 diode-1.sym
{
T 45100 43400 5 10 1 1 180 0 1
refdes=D6
T 45500 43300 5 10 0 0 0 0 1
model-name=pad
}
C 45200 44700 1 0 0 vdd-1.sym
C 45600 42900 1 180 0 vss-1.sym
C 46500 42000 1 90 0 diode-1.sym
{
T 46000 42500 5 10 1 1 180 0 1
refdes=D7
T 46400 42400 5 10 0 0 0 0 1
model-name=pad
}
C 46500 41100 1 90 0 diode-1.sym
{
T 46000 41600 5 10 1 1 180 0 1
refdes=D8
T 46400 41500 5 10 0 0 0 0 1
model-name=pad
}
C 46100 42900 1 0 0 vdd-1.sym
C 46500 41100 1 180 0 vss-1.sym
N 44300 47800 44300 46700 4
N 44300 46700 46300 46700 4
N 44300 43200 44300 42000 4
N 44300 42000 46300 42000 4
C 51700 47400 1 0 1 spice-vc-switch-1.sym
{
T 50800 48600 5 12 1 1 0 6 1
refdes=Sl2
T 51000 47550 5 8 1 1 0 6 1
model-name=swvl
}
C 51700 42800 1 0 1 spice-vc-switch-1.sym
{
T 50800 44000 5 12 1 1 0 6 1
refdes=Sh2
T 51000 42950 5 8 1 1 0 6 1
model-name=swvh
}
N 51500 43800 51500 47800 4
{
T 51600 46300 5 10 1 1 0 0 1
netname=in2
}
N 52000 48400 51500 48400 4
N 50000 48400 48400 48400 4
{
T 49800 48500 5 10 1 1 0 6 1
netname=D4
}
N 50000 47800 49500 47800 4
{
T 49800 47900 5 10 1 1 0 6 1
netname=S4
}
N 50000 43800 48400 43800 4
{
T 49800 43900 5 10 1 1 0 6 1
netname=D2
}
N 50000 43200 49500 43200 4
{
T 49800 43300 5 10 1 1 0 6 1
netname=S2
}
C 48200 48400 1 270 1 diode-1.sym
{
T 48700 48900 5 10 1 1 180 6 1
refdes=D9
T 48300 48800 5 10 0 0 0 6 1
model-name=pad
}
C 48200 47500 1 270 1 diode-1.sym
{
T 48700 48000 5 10 1 1 180 6 1
refdes=D10
T 48300 47900 5 10 0 0 0 6 1
model-name=pad
}
C 48600 49300 1 0 1 vdd-1.sym
C 48200 47500 1 180 1 vss-1.sym
C 51800 48400 1 180 1 vee-1.sym
C 51300 43200 1 180 1 vee-1.sym
C 47300 46700 1 270 1 diode-1.sym
{
T 47800 47200 5 10 1 1 180 6 1
refdes=D11
T 47400 47100 5 10 0 0 0 6 1
model-name=pad
}
C 47300 45800 1 270 1 diode-1.sym
{
T 47800 46300 5 10 1 1 180 6 1
refdes=D12
T 47400 46200 5 10 0 0 0 6 1
model-name=pad
}
C 47700 47600 1 0 1 vdd-1.sym
C 47300 45800 1 180 1 vss-1.sym
C 48200 43800 1 270 1 diode-1.sym
{
T 48700 44300 5 10 1 1 180 6 1
refdes=D13
T 48300 44200 5 10 0 0 0 6 1
model-name=pad
}
C 48200 42900 1 270 1 diode-1.sym
{
T 48700 43400 5 10 1 1 180 6 1
refdes=D14
T 48300 43300 5 10 0 0 0 6 1
model-name=pad
}
C 48600 44700 1 0 1 vdd-1.sym
C 48200 42900 1 180 1 vss-1.sym
C 47300 42000 1 270 1 diode-1.sym
{
T 47800 42500 5 10 1 1 180 6 1
refdes=D15
T 47400 42400 5 10 0 0 0 6 1
model-name=pad
}
C 47300 41100 1 270 1 diode-1.sym
{
T 47800 41600 5 10 1 1 180 6 1
refdes=D16
T 47400 41500 5 10 0 0 0 6 1
model-name=pad
}
C 47700 42900 1 0 1 vdd-1.sym
C 47300 41100 1 180 1 vss-1.sym
N 49500 47800 49500 46700 4
N 49500 46700 47500 46700 4
N 49500 43200 49500 42000 4
N 49500 42000 47500 42000 4
C 43400 45900 1 90 0 diode-1.sym
{
T 42900 46400 5 10 1 1 180 0 1
refdes=D17
T 43300 46300 5 10 0 0 0 0 1
model-name=pad
}
C 43400 45000 1 90 0 diode-1.sym
{
T 42900 45500 5 10 1 1 180 0 1
refdes=D18
T 43300 45400 5 10 0 0 0 0 1
model-name=pad
}
C 43000 46800 1 0 0 vdd-1.sym
C 43400 45000 1 180 0 vss-1.sym
N 42300 45900 43200 45900 4
C 50500 45900 1 270 1 diode-1.sym
{
T 51000 46400 5 10 1 1 180 6 1
refdes=D19
T 50600 46300 5 10 0 0 0 6 1
model-name=pad
}
C 50500 45000 1 270 1 diode-1.sym
{
T 51000 45500 5 10 1 1 180 6 1
refdes=D20
T 50600 45400 5 10 0 0 0 6 1
model-name=pad
}
C 50900 46800 1 0 1 vdd-1.sym
C 50500 45000 1 180 1 vss-1.sym
N 50700 45900 51500 45900 4
C 54600 48100 1 0 0 vcc-1.sym
C 54600 47200 1 180 1 vee-1.sym
C 54600 47200 1 270 1 diode-1.sym
{
T 55100 47700 5 10 1 1 180 6 1
refdes=D21
T 54700 47600 5 10 0 0 0 6 1
model-name=pad
}
