* J309 model for ngspice
* Abridged from Fairchild J309 model
* Adjusted to match MMBTJ309 samples for TESS project
* 20150106 jpd
.MODEL J309 NJF
+ LEVEL=1
+ VTO=-2
+ BETA=0.005
+ LAMBDA=0.0582
+ IS=4.0937e-14
+ RD=10
+ RS=53
+ CGD=1.2e-11
+ CGS=1.6e-11
+ PB=0.515
+ KF=5.622e-18
+ AF=0.55664
